Version 4
SHEET 1 880 680
WIRE 128 16 -16 16
WIRE 368 16 128 16
WIRE 608 16 464 16
WIRE -16 160 -16 16
WIRE 448 160 448 64
WIRE 608 288 608 96
WIRE 608 288 352 288
WIRE -16 304 -16 240
WIRE 448 336 448 240
WIRE 128 384 128 96
WIRE 192 384 128 384
WIRE 352 384 352 288
WIRE 352 384 272 384
WIRE 384 384 352 384
WIRE 256 480 256 432
WIRE 448 496 448 432
WIRE 208 560 208 432
WIRE 256 560 208 560
WIRE 208 592 208 560
FLAG 448 496 0
FLAG -16 304 0
FLAG 208 592 0
SYMBOL voltage -16 144 R0
WINDOW 123 0 0 Left 0
WINDOW 39 0 0 Left 0
SYMATTR InstName V1
SYMATTR Value 48V
SYMBOL pmos 368 64 R270
SYMATTR InstName M1
SYMBOL res 112 0 R0
SYMATTR InstName R1
SYMATTR Value 100K
SYMBOL res 432 144 R0
SYMATTR InstName R2
SYMATTR Value 47K
SYMBOL res 592 0 R0
SYMATTR InstName R3
SYMATTR Value 100K
SYMBOL npn 384 336 R0
SYMATTR InstName Q1
SYMBOL voltage 256 464 R0
WINDOW 123 0 0 Left 0
WINDOW 39 0 0 Left 0
SYMATTR InstName V2
SYMATTR Value PULSE(0 5 0.5 0 0 0.5 1)
SYMBOL sw 176 384 R270
SYMATTR InstName S1
TEXT -50 616 Left 2 !.tran 10s
TEXT 0 408 Left 2 !.model SW SW()
